Version 4.1
SHEET 1 1640 928
WIRE 656 -16 208 -16
WIRE 208 80 208 -16
WIRE 480 176 480 144
WIRE -1056 192 -1136 192
WIRE -960 192 -976 192
WIRE -784 192 -960 192
WIRE -544 192 -704 192
WIRE -432 192 -544 192
WIRE -336 192 -432 192
WIRE -176 192 -256 192
WIRE -96 192 -176 192
WIRE 64 192 -96 192
WIRE 208 192 208 144
WIRE 208 192 144 192
WIRE 272 192 208 192
WIRE 384 192 352 192
WIRE 448 192 416 192
WIRE 656 208 656 -16
WIRE 656 208 512 208
WIRE 848 208 656 208
WIRE 384 224 384 192
WIRE 448 224 384 224
WIRE -544 240 -544 192
WIRE -432 240 -432 192
WIRE -176 240 -176 192
WIRE -96 240 -96 192
WIRE 384 272 384 224
WIRE 480 288 480 240
WIRE -1136 304 -1136 192
WIRE 416 352 416 192
WIRE 656 352 416 352
WIRE -544 400 -544 304
WIRE -432 400 -432 304
WIRE -176 400 -176 304
WIRE -96 400 -96 304
WIRE 384 400 384 336
WIRE -1136 416 -1136 384
WIRE 96 720 96 688
WIRE 304 720 304 656
WIRE 96 880 96 800
WIRE 304 880 304 800
FLAG -1136 416 0
FLAG -544 400 0
FLAG -960 192 Vin
FLAG -432 400 0
FLAG -176 400 0
FLAG -96 400 0
FLAG 848 208 Vout
FLAG 480 144 V+
FLAG 96 880 0
FLAG 304 880 0
FLAG 96 688 V+
FLAG 304 656 V-
FLAG 480 288 V-
FLAG 384 400 0
SYMBOL bv -1136 288 R0
SYMATTR InstName B1
SYMATTR Value V=WHITE(1000*time)
SYMBOL voltage -960 192 R90
WINDOW 0 -32 56 VBottom 2
WINDOW 3 -4 56 VBottom 2
WINDOW 123 0 0 Left 0
WINDOW 39 0 0 Left 0
SYMATTR InstName V3
SYMATTR Value 1.2
SYMBOL res -688 176 R90
WINDOW 0 0 56 VBottom 2
WINDOW 3 32 56 VTop 2
SYMATTR InstName R4
SYMATTR Value 22K
SYMBOL cap -560 240 R0
SYMATTR InstName C3
SYMATTR Value 10µ
SYMATTR SpiceLine V=25
SYMBOL cap -448 240 R0
SYMATTR InstName C1
SYMATTR Value 10µ
SYMBOL cap -112 240 R0
SYMATTR InstName C2
SYMATTR Value 10µ
SYMBOL cap -192 240 R0
SYMATTR InstName C4
SYMATTR Value 10µ
SYMBOL res -240 176 R90
WINDOW 0 0 56 VBottom 2
WINDOW 3 32 56 VTop 2
SYMATTR InstName R1
SYMATTR Value 22k
SYMBOL OpAmps\\ADA4896 480 144 R0
SYMATTR InstName U1
SYMBOL res 160 176 R90
WINDOW 0 0 56 VBottom 2
WINDOW 3 32 56 VTop 2
SYMATTR InstName R2
SYMATTR Value 1.6Meg
SYMBOL voltage 96 704 R0
WINDOW 123 0 0 Left 0
WINDOW 39 0 0 Left 0
SYMATTR InstName V1
SYMATTR Value 5
SYMBOL voltage 304 704 R0
WINDOW 123 0 0 Left 0
WINDOW 39 0 0 Left 0
SYMATTR InstName V2
SYMATTR Value 0
SYMBOL res 368 176 R90
WINDOW 0 0 56 VBottom 2
WINDOW 3 32 56 VTop 2
SYMATTR InstName R3
SYMATTR Value 1.6Meg
SYMBOL cap 192 80 R0
SYMATTR InstName C5
SYMATTR Value 1µ
SYMBOL cap 368 272 R0
SYMATTR InstName C6
SYMATTR Value 1µ
TEXT -816 552 Left 2 !.tran 1
TEXT -280 -48 Left 2 ;OA Filter
